data/D022565/Loads.dss
New Load.load_load1 conn=wye bus1=n198244.1.2.3 kV=0.433 Vminpu=0.7 Vmaxpu=1.3 model=1 kW=1.0 kvar=1.00001918018394 Phases=4
New Load.load_load2 conn=wye bus1=n198244.1.2.3 kV=0.433 Vminpu=0.7 Vmaxpu=1.3 model=1 kW=1.0 kvar=1.00001918018394 Phases=4
New Load.load_load3 conn=wye bus1=n198244.1.2.3 kV=0.433 Vminpu=0.7 Vmaxpu=1.3 model=1 kW=1.0 kvar=1.00001918018394 Phases=4
New Load.load_load4 conn=wye bus1=n198247.1.2.3 kV=0.433 Vminpu=0.7 Vmaxpu=1.3 model=1 kW=1.0 kvar=1.00001918018394 Phases=4
New Load.load_load5 conn=wye bus1=n198242.1.2.3 kV=0.433 Vminpu=0.7 Vmaxpu=1.3 model=1 kW=1.0 kvar=1.00001918018394 Phases=4
New Load.load_load6 conn=wye bus1=n198242.1.2.3 kV=0.433 Vminpu=0.7 Vmaxpu=1.3 model=1 kW=1.0 kvar=1.00001918018394 Phases=4
New Load.load_load7 conn=wye bus1=n198242.1.2.3 kV=0.433 Vminpu=0.7 Vmaxpu=1.3 model=1 kW=1.0 kvar=1.00001918018394 Phases=4
New Load.load_load8 conn=wye bus1=n198242.1.2.3 kV=0.433 Vminpu=0.7 Vmaxpu=1.3 model=1 kW=1.0 kvar=1.00001918018394 Phases=4
New Load.load_load9 conn=wye bus1=n198242.1.2.3 kV=0.433 Vminpu=0.7 Vmaxpu=1.3 model=1 kW=1.0 kvar=1.00001918018394 Phases=4
